Version 4
SHEET 1 880 680
WIRE 304 -48 240 -48
WIRE 304 -32 304 -48
WIRE 240 16 240 -48
WIRE -144 32 -160 32
WIRE 480 32 448 32
WIRE 240 112 240 96
WIRE 336 112 240 112
WIRE 448 112 448 32
WIRE 448 112 400 112
WIRE 240 144 240 112
WIRE -160 192 -160 32
WIRE -80 192 -160 192
WIRE 48 192 48 160
WIRE 48 192 -16 192
WIRE 176 192 48 192
WIRE -544 224 -544 160
WIRE -416 224 -416 160
WIRE 48 224 48 192
WIRE 240 288 240 240
WIRE -544 352 -544 304
WIRE -416 352 -416 304
WIRE 48 352 48 304
FLAG -416 352 0
FLAG -544 352 0
FLAG 48 352 0
FLAG 304 -32 0
FLAG -544 160 V_CC
FLAG -416 160 V_test
FLAG 480 32 OUTPUT
IOPIN 480 32 Out
FLAG -144 32 INPUT
IOPIN -144 32 Out
FLAG 48 80 V_CC
FLAG 240 368 V_CC
FLAG -160 192 V_test
SYMBOL pnp 176 144 R0
SYMATTR InstName My2N3906
SYMBOL res 224 272 R0
SYMATTR InstName R_E
SYMATTR Value 50
SYMBOL res 224 0 R0
SYMATTR InstName R_C
SYMATTR Value 1115
SYMBOL res 32 64 R0
SYMATTR InstName R_1
SYMATTR Value 1k
SYMBOL res 32 208 R0
SYMATTR InstName R_2
SYMATTR Value 8k
SYMBOL cap -16 176 R90
WINDOW 0 0 32 VBottom 2
WINDOW 3 32 32 VTop 2
SYMATTR InstName C_in
SYMATTR Value 1µ
SYMBOL cap 400 96 R90
WINDOW 0 0 32 VBottom 2
WINDOW 3 32 32 VTop 2
SYMATTR InstName C_out
SYMATTR Value 1µ
SYMBOL voltage -544 208 R0
WINDOW 123 0 0 Left 0
WINDOW 39 0 0 Left 0
SYMATTR InstName V1
SYMATTR Value 10
SYMBOL voltage -416 208 R0
WINDOW 123 0 0 Left 0
WINDOW 39 0 0 Left 0
SYMATTR InstName V2
SYMATTR Value AC 1
TEXT -560 -64 Left 2 !.MODEL My2N3906 AKO: 2N3906 (Bf = 100)
TEXT -560 -104 Left 2 !.ac dec 10 10 1G
