Version 4
SHEET 1 880 680
WIRE 320 -16 256 -16
WIRE 320 0 320 -16
WIRE 256 32 256 -16
WIRE 496 48 480 48
WIRE -96 96 -112 96
WIRE 80 96 80 48
WIRE 256 128 256 112
WIRE 384 128 256 128
WIRE 480 128 480 48
WIRE 480 128 448 128
WIRE 256 160 256 128
WIRE -112 208 -112 96
WIRE -64 208 -112 208
WIRE 80 208 80 176
WIRE 80 208 0 208
WIRE 192 208 80 208
WIRE 80 240 80 208
WIRE -576 256 -576 192
WIRE -432 256 -432 192
WIRE 256 288 256 256
WIRE 384 288 256 288
WIRE 256 304 256 288
WIRE 384 304 384 288
WIRE 80 352 80 320
WIRE -576 384 -576 336
WIRE -432 384 -432 336
WIRE 256 448 256 384
WIRE 320 448 256 448
WIRE 384 448 384 368
WIRE 384 448 320 448
WIRE 320 480 320 448
FLAG 80 352 0
FLAG 320 0 0
FLAG -432 384 0
FLAG -576 384 0
FLAG -576 192 V_CC
FLAG -432 192 V_test
FLAG -96 96 INPUT
IOPIN -96 96 Out
FLAG 496 48 OUTPUT
IOPIN 496 48 Out
FLAG 320 480 V_CC
FLAG 80 48 V_CC
FLAG -112 208 V_test
SYMBOL pnp 192 160 R0
SYMATTR InstName Q1
SYMBOL res 240 288 R0
SYMATTR InstName R_E
SYMATTR Value 1500
SYMBOL res 240 16 R0
SYMATTR InstName R_C
SYMATTR Value 1150
SYMBOL cap 368 304 R0
SYMATTR InstName C_E
SYMATTR Value 1µ
SYMBOL res 64 80 R0
SYMATTR InstName R1
SYMATTR Value 22000
SYMBOL res 64 224 R0
SYMATTR InstName R2
SYMATTR Value 20000
SYMBOL cap 0 192 R90
WINDOW 0 0 32 VBottom 2
WINDOW 3 32 32 VTop 2
SYMATTR InstName C_in
SYMATTR Value 1µ
SYMBOL cap 448 112 R90
WINDOW 0 0 32 VBottom 2
WINDOW 3 32 32 VTop 2
SYMATTR InstName C_out
SYMATTR Value 1µ
SYMBOL voltage -576 240 R0
SYMATTR InstName V1
SYMATTR Value 10
SYMBOL voltage -432 240 R0
WINDOW 123 24 124 Left 2
WINDOW 39 0 0 Left 0
SYMATTR InstName V2
SYMATTR Value SINE(0 0.01 100k)
SYMATTR Value2 AC 1
TEXT -584 -8 Left 2 !.MODEL My2N3906 AKO: 2N3906 (Bf = 100)
TEXT -584 -48 Left 2 !.ac dec 10 10 1G
